powerflow/Codes/PF_Formulation/resultados_csv/18/300bus/ramos.csv
caso,script,branch_id,f_bus,t_bus,pf_pu,qf_pu,pt_pu,qt_pu,loss_p_pu,loss_q_pu
300bus.pwf,18,1,206,207,-0.15213388884468312,-0.1479744870465509,0.1549690548457486,0.15158641085612842,0.002835166001065481,0.003611923809577533
300bus.pwf,18,2,9021,9023,0.009120424502473376,0.002635669511689518,-0.009027319871703096,-0.0025555211288692957,9.310463077027986e-5,8.014838282022207e-5
300bus.pwf,18,3,1,5,4.082128968148818,1.3292615044884253,-4.065908159047281,-1.2319366498792415,0.01622080910153656,0.09732485460918383
300bus.pwf,18,4,37,38,-0.25609679085167947,-0.3420950129737039,0.25751702957415723,0.34218887875206816,0.0014202387224777624,9.386577836423271e-5
300bus.pwf,18,5,70,528,0.283604000652468,-0.21570090118067672,-0.28099999998407704,0.20507023733931803,0.002604000668390949,-0.01063066384135869
300bus.pwf,18,6,25,26,0.8323230551975096,0.1539659055545718,-0.808342731000476,-0.14218515478127414,0.023980324197033553,0.011780750773297655
300bus.pwf,18,7,41,42,-5.309241353219477,-0.904402663973066,5.309241353219477,1.6999769249979337,0.0,0.7955742610248677
300bus.pwf,18,8,231,232,5.5281026323224705,-0.7603628676193791,-5.522692365459529,-0.5931762045689896,0.0054102668629418815,-1.3535390721883687
300bus.pwf,18,9,201,204,-0.21197602422972564,-0.2535228205406312,0.22727611014799934,0.27610278604905186,0.015300085918273698,0.022579965508420674
300bus.pwf,18,10,119,1190,1.0039837599536294,0.3143271719457272,-1.0029999999999937,-0.29170069301210305,0.0009837599536357544,0.022626478933624128
300bus.pwf,18,11,115,122,1.736273987835229,0.6479929801509642,-1.7216616309818336,-0.5705325159596811,0.014612356853395347,0.07746046419128305
300bus.pwf,18,12,9006,9007,0.09105162527599517,0.022365819670711315,-0.09059211465849812,-0.020326544951174516,0.0004595106174970498,0.002039274719536799
300bus.pwf,18,13,145,146,-2.0584534004569663,-0.7294448727909024,2.0967572768524274,0.897866487474732,0.03830387639546107,0.16842161468382955
300bus.pwf,18,14,228,231,0.022649266255986164,-0.878376648315297,-0.02056256526141824,0.9519729872390983,0.002086700994567925,0.07359633892380124
300bus.pwf,18,15,129,133,1.0343006328858964,-0.07933855970432258,-1.0322429327271239,0.06471460641499927,0.002057700158772491,-0.01462395328932331
300bus.pwf,18,16,189,208,0.03587521148023812,-0.062284979405861106,-0.03571982466234272,0.06273230509374075,0.00015538681789539766,0.0004473256878796475
300bus.pwf,18,17,57,58,-0.6059577412366868,0.664969591254918,0.6383737476802964,-0.6505542052952701,0.032416006443609646,0.014415385959647864
300bus.pwf,18,18,200,210,-0.1999549254711011,0.11113097885435226,0.20398850917282202,-0.11998277982625523,0.004033583701720911,-0.008851800971902968
300bus.pwf,18,19,15,89,0.4948945543223064,-0.08117671307651919,-0.47410372952441254,0.09275896296845143,0.020790824797893848,0.01158224989193224
300bus.pwf,18,20,197,198,-0.9506188986470504,-0.7767231082222186,0.9643329811356186,0.8486427663701488,0.013714082488568202,0.07191965814793022
300bus.pwf,18,21,14,15,2.137702853786891,-1.8750270950748407,-2.0350130645841045,2.073502922304729,0.10268978920278649,0.19847582722988832
300bus.pwf,18,22,9004,9044,-0.04296404175779829,-0.014248296537245981,0.043041310646966216,0.014306651486424588,7.726888916792518e-5,5.8354949178607285e-5
300bus.pwf,18,23,173,176,-0.4696044464620479,0.2952497319986169,0.5359693014791589,-0.1694418106289215,0.06636485501711098,0.12580792136969543
300bus.pwf,18,24,224,226,-0.3999348729628993,-1.6296135310403672,0.40261054661444806,0.7045594994414346,0.002675673651548749,-0.9250540315989326
300bus.pwf,18,25,135,136,-2.1045535300645217,-0.30923607775315715,2.1401219678860652,0.10312961673829518,0.03556843782154351,-0.20610646101486196
300bus.pwf,18,26,13,20,1.1305025353425362,0.9768130673026172,-1.11659701876132,-0.912908668171506,0.013905516581216304,0.06390439913111123
300bus.pwf,18,27,116,120,-2.785489804466553,-0.4467337072281047,2.8051395895074696,1.476448465523526,0.019649785040916523,1.0297147582954214
300bus.pwf,18,28,104,322,0.02410909194670985,-0.0558164194174191,-0.023999999999999466,0.03900375344546258,0.00010909194671038236,-0.01681266597195652
300bus.pwf,18,29,37,90,-0.5747428305146445,-0.09826215218358161,0.5904443973089897,0.123815516916886,0.0157015667943452,0.025553364733304385
300bus.pwf,18,30,127,128,-0.5439229068010137,-0.27784157125065667,0.5458460658462437,0.1937763479142861,0.001923159045229994,-0.08406522333637056
300bus.pwf,18,31,26,320,0.02476069078271364,-0.13801094481297457,-0.024000000000000736,0.1260229005460559,0.0007606907827129028,-0.011988044266918685
300bus.pwf,18,32,167,169,-1.4895522203763902,-0.4435890025966446,1.493708260720021,0.45420399307727044,0.004156040343630707,0.010614990480625863
300bus.pwf,18,33,203,211,0.24350526019741972,0.431031685408065,-0.24133088139870498,-0.4271440900836222,0.002174378798714738,0.0038875953244428274
300bus.pwf,18,34,123,124,-1.4184309000122934,0.2900606163289943,1.5036781743171868,-0.14392017145621222,0.08524727430489332,0.1461404448727821
300bus.pwf,18,35,24,319,1.1665298398126256,-0.31439260933929614,-1.157999999999999,0.24001908280369033,0.00852983981262656,-0.0743735265356058
300bus.pwf,18,36,99,109,0.33869031539281963,0.06346086060180531,-0.3341156355760696,-0.07884297946617366,0.004574679816750027,-0.015382118864368355
300bus.pwf,18,37,77,78,-2.645591752696005,-1.2056028953882985,2.6536818559553894,1.246767394560325,0.008090103259384307,0.04116449917202658
300bus.pwf,18,38,20,27,0.20433337416571346,-0.16290060161113867,-0.20000452471564928,0.08624481755055897,0.004328849450064176,-0.0766557840605797
300bus.pwf,18,39,198,210,0.9682325689550147,0.6000260251119304,-0.9466898054460914,-0.5305914632093355,0.021542763508923368,0.0694345619025949
300bus.pwf,18,40,97,102,0.298671632821884,0.08272749492882052,-0.29544259931747396,-0.08841071030736695,0.0032290335044100615,-0.005683215378546436
300bus.pwf,18,41,37,40,-0.17880952872469885,-0.28301376296825054,0.18119983027532877,0.28272107518208656,0.002390301550629914,-0.00029268778616398095
300bus.pwf,18,42,220,238,-2.851810441309029,-0.24753571367363503,2.8646886082192413,-0.12368651948930409,0.012878166910212485,-0.3712222331629391
300bus.pwf,18,43,8,14,3.9274985136875626,-0.749686003754497,-3.737702853786926,1.2751225892498035,0.18979565990063652,0.5254365854953065
300bus.pwf,18,44,158,159,-2.5156364822069675,1.874881678826565,2.546735594017468,-1.7413797678431102,0.031099111810500624,0.13350191098345476
300bus.pwf,18,45,217,220,-0.15886026453393112,0.22723159794588496,0.16006236503011131,-1.0718679467873256,0.0012021004961801918,-0.8446363488414406
300bus.pwf,18,46,122,123,0.25228011547662316,-0.26810963775519425,-0.23937524951206907,0.28076264531048867,0.01290486596455409,0.012653007555294415
300bus.pwf,18,47,228,234,-0.06306590341798335,-1.8088996578302494,0.06579353150502698,1.056246041224153,0.002727628087043632,-0.7526536166060964
300bus.pwf,18,48,7,12,2.467720430220748,-2.076988271626852,-2.4577194661567123,2.0940719759204636,0.0100009640640355,0.01708370429361139
300bus.pwf,18,49,130,151,1.5750372805009694,3.019539413340315,-1.557763873365584,-2.8804607848037485,0.017273407135385277,0.13907862853656638
300bus.pwf,18,50,11,13,1.744050521869525,1.200946352234282,-1.710502535342533,-1.0767684152611523,0.03354798652699209,0.12417793697312973
300bus.pwf,18,51,198,203,0.6693995799414669,0.5716993006636536,-0.6635052601974227,-0.5710153010885549,0.005894319744044196,0.0006839995750986816
300bus.pwf,18,52,245,246,0.2009319362419168,0.010075292590664829,-0.20035781392427027,-0.007398492995011906,0.0005741223176465304,0.0026767995956529234
300bus.pwf,18,53,165,166,-5.522797860980045,1.042371675974485,5.529999999999976,-0.5994401262486861,0.007202139019931053,0.44293154972579885
300bus.pwf,18,54,235,238,-2.5599844889164283,-0.9810546860747797,2.561335740587311,0.16947263203892704,0.0013512516708829025,-0.8115820540358527
300bus.pwf,18,55,119,121,6.570448476244972,4.301988474683355,-6.570448476244972,-1.1113438182149071,0.0,3.1906446564684483
300bus.pwf,18,56,63,526,1.5024815031373064,-0.05924401796228054,-1.4529999999999998,0.3490524295863707,0.04948150313730659,0.2898084116240902
300bus.pwf,18,57,85,86,-1.4210245114612259,-0.3187313323592411,1.435511174664383,0.283690867426329,0.014486663203157057,-0.03504046493291213
300bus.pwf,18,58,125,126,-3.8376793761155383,0.13363971064747837,3.8466372084156393,0.16047578320582623,0.008957832300100943,0.2941154938533046
300bus.pwf,18,59,172,173,0.34359602476937634,0.17428119583491825,-0.333750216076782,-0.1655082822529666,0.009845808692594327,0.008772913581951647
300bus.pwf,18,60,173,175,-0.1395844778443568,0.14611758800953645,0.14348673481330199,-0.16635542279220017,0.0039022569689451947,-0.02023783478266372
300bus.pwf,18,61,126,129,0.2770031987171809,-0.569121209139347,-0.27347570521438885,0.409849456817755,0.003527493502792023,-0.15927175232159207
300bus.pwf,18,62,157,159,-6.330733224461027,2.3204566580068455,6.371606760490406,-1.88027779503693,0.0408735360293786,0.4401788629699155
300bus.pwf,18,63,175,179,0.11438811019602418,-0.15292467059010056,-0.11151154542634606,0.11892077864832391,0.002876564769678125,-0.03400389194177665
300bus.pwf,18,64,154,183,-0.5841187879953317,-0.11963747907634306,0.6116710897617582,0.17405532693601747,0.027552301766426535,0.054417847859674406
300bus.pwf,18,65,21,24,-2.1162150527232395,-1.1297489191632133,2.1364834915450346,0.989020432958374,0.020268438821795076,-0.14072848620483924
300bus.pwf,18,66,217,219,-1.2269321896462293,-2.3655487166287044,1.2302519776472023,2.4609630119252968,0.0033197880009729896,0.0954142952965924
300bus.pwf,18,67,91,94,-0.08613570068705251,0.44008333400939176,0.10414826034183694,-0.42889653960768875,0.018012559654784432,0.011186794401703004
300bus.pwf,18,68,191,192,8.290964016591307,3.273310557546211,-8.049696802967205,0.5869648604394154,0.24126721362410208,3.8602754179856262
300bus.pwf,18,69,217,218,0.15342926999543297,1.064889275932753,-0.15342926999543297,-1.015186190391134,0.0,0.049703085541619174
300bus.pwf,18,70,12,21,4.720656689804224,-1.026336595785081,-4.676778465598073,1.2296793083906707,0.04387822420615173,0.20334271260558978
300bus.pwf,18,71,178,179,0.191805721371926,-0.2338556553487381,-0.18651077758378512,0.22911407755266033,0.005294943788140882,-0.004741577796077756
300bus.pwf,18,72,51,52,-0.3127748991210728,-0.053556260702208716,0.3166916602502985,0.018610354022150125,0.0039167611292256765,-0.03494590668005859
300bus.pwf,18,73,158,160,-0.8613574994232651,-1.1740376404362232,0.8740581523267694,0.9819730554463371,0.012700652903504306,-0.1920645849898861
300bus.pwf,18,74,33,38,1.3324330568826521,0.2278364127425917,-1.3281217057212682,-0.22086227642519562,0.004311351161383925,0.0069741363173960735
300bus.pwf,18,75,199,200,-0.02858890720563991,-0.09373820058922473,0.029216696957746445,0.08520798705690986,0.0006277897521065334,-0.008530213532314868
300bus.pwf,18,76,98,100,-0.03587328240375601,0.30425967391490283,0.03784636716760928,-0.3070732198612147,0.0019730847638532722,-0.0028135459463118906
300bus.pwf,18,77,126,157,-3.6577411687591335,1.6253628580592756,3.7412426896470445,-1.1014464529571408,0.08350152088791107,0.5239164051021348
300bus.pwf,18,78,53,54,-0.38926521687555066,-0.03563383344401122,0.39275893795621314,0.0074187065825606635,0.003493721080662482,-0.028215126861450557
300bus.pwf,18,79,72,531,0.14052820519810327,0.02891884742541249,-0.13999999998814072,-0.02493667533467823,0.0005282052099625512,0.0039821720907342595
300bus.pwf,18,80,2,8,4.355126900257754,-0.1405059517143653,-4.253817451382591,0.5366021573745582,0.10130944887516335,0.3960962056601929
300bus.pwf,18,81,48,107,-0.4486882584550763,-0.2649404230231224,0.4548469967563774,0.2723605688078984,0.006158738301301092,0.007420145784776011
300bus.pwf,18,82,199,210,-0.32141109279435326,-0.026251597655805953,0.3253399806186435,0.030903875553564192,0.003928887824290239,0.004652277897758239
300bus.pwf,18,83,15,90,0.5253888589668118,-0.001448481829317172,-0.5029422046990296,0.03160925743338966,0.02244665426778214,0.030160775604072487
300bus.pwf,18,84,45,74,2.253848444884108,-1.9158088436061669,-2.1800415266594597,1.9219140993667225,0.07380691822464813,0.00610525576055565
300bus.pwf,18,85,35,76,1.1363124179337805,0.5651377725973785,-1.1267375632462626,-0.5447872796836433,0.009574854687517842,0.020350492913735252
300bus.pwf,18,86,117,118,-9.2483423545078,5.166168080743688,9.259842735100515,-4.975623139980172,0.01150038059271452,0.19054494076351602
300bus.pwf,18,87,39,42,4.999999999999993,1.27340982764889,-4.985859434805871,-1.5851580299020889,0.01414056519412199,-0.31174820225319877
300bus.pwf,18,88,204,205,-0.07171186963360497,-0.3088686916707759,0.07617410547940316,0.3154650403123911,0.00446223584579819,0.0065963486416151795
300bus.pwf,18,89,60,62,-3.4477584665892542,-0.468712959797633,3.5492433777163157,0.6549365801768423,0.10148491112706148,0.1862236203792093
300bus.pwf,18,90,137,181,-1.870214297220643,-1.1863783163015131,1.8722784874944494,1.175508281577392,0.0020641902738063322,-0.01087003472412107
300bus.pwf,18,91,140,141,-0.4625073971960557,0.10451364298034871,0.4650178637856194,-0.2300791114685693,0.0025104665895636646,-0.1255654684882206
300bus.pwf,18,92,81,194,0.18501841275230982,-0.4274647313885856,-0.1848692412110811,-0.18379934677850346,0.000149171541228732,-0.611264078167089
300bus.pwf,18,93,143,145,0.3717284948849063,0.2620718100084849,-0.37005365522725847,-0.372322958609435,0.0016748396576478086,-0.11025114860095009
300bus.pwf,18,94,55,57,-1.0547244384220427,0.09998606080556827,1.1238016852283337,-0.012873533033931794,0.06907724680629101,0.08711252777163647
300bus.pwf,18,95,78,84,-3.3799999998264942,-1.7766007293640307,3.3799999998264942,2.2700543313429797,0.0,0.49345360197894905
300bus.pwf,18,96,172,174,-0.31294552693508093,-0.1766954457747132,0.3192143033438206,0.1657390708060924,0.006268776408739685,-0.010956374968620786
300bus.pwf,18,97,126,127,1.7222258036091973,-1.1930826146861673,-1.697808413995368,1.103341410214652,0.024417389613829332,-0.08974120447151535
300bus.pwf,18,98,57,63,0.15215605600830823,-0.09978111353664634,-0.14861898432375603,0.02654130038609783,0.0035370716845521954,-0.0732398131505485
300bus.pwf,18,99,190,240,-0.330943415038966,1.2077240166414995,0.330943415038966,-1.169104428508966,0.0,0.03861958813253352
300bus.pwf,18,100,123,125,0.877806149524362,-0.5843369336764067,-0.822850689157364,0.6070126633803231,0.054955460366997944,0.022675729703916403
300bus.pwf,18,101,126,158,-3.2822128701592765,1.0369524821409013,3.3769939816302257,-0.7001771705701505,0.09478111147094914,0.3367753115707508
300bus.pwf,18,102,143,149,-0.515704176497743,-0.38204417630403426,0.5198728971376447,0.25867247571721136,0.004168720639901702,-0.1233717005868229
300bus.pwf,18,103,196,197,-0.788070049890913,-0.4630157631526931,0.7993677017740017,0.4910423629388557,0.011297651883088733,0.02802659978616262
300bus.pwf,18,104,163,164,-2.3293345173896904,-0.763753883021012,2.357882211770172,-2.3863005123286367,0.02854769438048166,-3.150054395349649
300bus.pwf,18,105,134,135,-0.4119087991099296,-0.09299212254609868,0.4125535300645192,-0.10668109645738044,0.0006447309545896118,-0.19967321900347912
300bus.pwf,18,106,242,247,1.0198533653387518,0.2769052728846942,-1.0088851402081145,-0.2061014624431708,0.010968225130637332,0.0708038104415234
300bus.pwf,18,107,102,104,0.4247274317293479,-0.5211254468541695,-0.4077503511672711,0.5161210253408479,0.016977080562076807,-0.005004421513321589
300bus.pwf,18,108,99,108,-0.07710797384552048,-0.19589779915045513,0.07718056468274082,0.19362484745371633,7.25908372203321e-5,-0.002272951696738801
300bus.pwf,18,109,140,182,1.6618816401771985,-0.8537646236446785,-1.6581347095623498,0.7394193962880418,0.0037469306148487647,-0.11434522735663677
300bus.pwf,18,110,173,174,-0.6920608596164959,-0.23650658633236932,0.7399129127434001,0.3826815735554231,0.047852053126904215,0.14617498722305378
300bus.pwf,18,111,198,202,0.17043846701652263,0.17522377236061484,-0.15404352768054805,-0.14124871735112535,0.01639493933597458,0.033975055009489497
300bus.pwf,18,112,47,113,0.24999196800818124,-0.11969257428937592,-0.2469505135425596,0.11417426193495413,0.0030414544656216513,-0.005518312354421795
300bus.pwf,18,113,134,184,-0.6209530631532457,-0.6498387074634627,0.623155668914014,0.373584112383618,0.0022026057607682503,-0.27625459507984473
300bus.pwf,18,114,77,80,0.027362451207148454,-0.10651684053526665,-0.027251613043676216,0.06719270468722392,0.00011083816347223774,-0.03932413584804273
300bus.pwf,18,115,74,562,0.5115241659886121,-0.21069035854721868,-0.5049999999975104,-0.17391787405213005,0.006524165991101616,-0.38460823259934873
300bus.pwf,18,116,220,221,0.5084023827155948,0.7050687184671515,-0.507236193044099,-1.1648026525182458,0.001166189671495843,-0.4597339340510943
300bus.pwf,18,117,187,188,4.92795840353387,0.6415488698027085,-4.913616808914874,-0.6034898430286015,0.014341594618995757,0.038059026774106997
300bus.pwf,18,118,112,114,-0.009135522254176662,-0.006377771910982898,0.009136955623072238,-0.0002310806229254077,1.4333688955758817e-6,-0.006608852533908305
300bus.pwf,18,119,37,49,2.585289611873368,0.9884404822698802,-2.455926618362986,-0.41589726410343575,0.12936299351038194,0.5725432181664445
300bus.pwf,18,120,118,1201,-0.7522813189706907,-0.0209355233854438,0.7522813189706907,0.3844753333877855,0.0,0.3635398100023417
300bus.pwf,18,121,146,147,-1.68074657157986,-0.08091420998107907,1.6982990018144024,0.11383634503029455,0.01755243023454245,0.032922135049215484
300bus.pwf,18,122,9003,9007,-0.069834935148153,-0.012447074761603913,0.07010795965610475,0.013653960516646376,0.0002730245079517468,0.0012068857550424639
300bus.pwf,18,123,224,225,-2.3279041769114714,2.3995691591394346,2.4436637113121717,-2.117627136136819,0.1157595344007003,0.2819420230026157
300bus.pwf,18,124,122,125,0.531311701802391,-0.31462607526614117,-0.48746993472709355,0.4327785543986933,0.04384176707529741,0.11815247913255211
300bus.pwf,18,125,195,219,0.27850769769905154,0.4430461991856313,-0.27687794898488943,-1.013254810827818,0.0016297487141621048,-0.5702086116421867
300bus.pwf,18,126,133,169,0.9566358853236897,0.757115624186352,-0.9537310223194705,-0.763726596142864,0.002904863004219216,-0.006610971956511946
300bus.pwf,18,127,148,179,0.47939540754764143,0.2709060449840373,-0.441977676989868,-0.24326197610459493,0.03741773055777342,0.027644068879442374
300bus.pwf,18,128,242,245,0.7045907597587818,0.14869456921175078,-0.7008620113573719,-0.10999743641175137,0.0037287484014099093,0.03869713279999941
300bus.pwf,18,129,90,92,-0.7475021926099698,-0.15528092865940973,0.7644035299388462,0.2195079329367054,0.016901337328876442,0.06422700427729566
300bus.pwf,18,130,190,229,-0.2619734751324496,1.480047395097511,0.2619734751324496,-1.3533934455068106,0.0,0.12665394959070042
300bus.pwf,18,131,218,220,-0.3322568492275602,-0.625318590005427,0.33334569356333527,0.21433504004369228,0.0010888443357750521,-0.4109835499617347
300bus.pwf,18,132,214,215,2.4576295429181965,1.1804860170083795,-2.4463867842658455,-1.0801977184866967,0.011242758652350915,0.10028829852168286
300bus.pwf,18,133,38,41,-0.6788604098327481,0.03776376272356699,0.6823914431468131,-0.042499828107589926,0.003531033314065013,-0.004736065384022936
300bus.pwf,18,134,41,51,1.1769751363575172,0.3406586697268537,-1.1325664049086066,-0.24898909833554478,0.044408731448910554,0.09166957139130893
300bus.pwf,18,135,162,164,4.610006626729811,-0.6654207172110596,-4.552093140531024,1.236424347792397,0.05791348619878711,0.5710036305813375
300bus.pwf,18,136,70,71,-0.8436040006277608,0.015771455129306805,0.8680779736162305,0.0011979471814907716,0.02447397298846976,0.016969402310797577
300bus.pwf,18,137,9003,9044,0.043189470105999196,0.014135623480842553,-0.04304131064696896,-0.014008067383831459,0.0001481594590302393,0.0001275560970110945
300bus.pwf,18,138,33,40,0.6645566472687189,-0.06975618996946045,-0.6620404189574592,0.060731130027136176,0.0025162283112596384,-0.009025059942324276
300bus.pwf,18,139,120,1201,0.7522813189706905,0.14683443982657574,-0.7522813189706905,-0.35915908185111123,0.0,-0.2123246420245355
300bus.pwf,18,140,105,110,0.4503809099931522,-0.12356445044067443,-0.42177904844404773,0.142440341485924,0.02860186154910449,0.01887589104524956
300bus.pwf,18,141,162,165,-5.460006626729808,0.42542290122766463,5.522797860980053,-1.0423714883384556,0.0627912342502448,-0.6169485871107909
300bus.pwf,18,142,42,46,5.726269360809608,-2.042640044566547,-5.663937904371297,1.5547097062319684,0.062331456438311506,-0.48793033833457855
300bus.pwf,18,143,37,41,-1.0402124167461468,-0.31261681397357355,1.051795881832088,0.3336129645570306,0.011583465085941214,0.02099615058345705
300bus.pwf,18,144,103,105,0.38753087920035745,-0.07775682629653,-0.38500391389589217,0.07666837105596011,0.0025269653044652785,-0.0010884552405698855
300bus.pwf,18,145,127,168,-0.5412302363893775,-0.2774112654130214,0.5431361421410792,0.1931816459634483,0.0019059057517016864,-0.0842296194495731
300bus.pwf,18,146,126,132,-0.03191189055522354,-0.6750890118878593,0.03723696352513901,0.372399599593577,0.0053250729699154675,-0.3026894122942823
300bus.pwf,18,147,94,97,0.15031502984685852,-0.2553550863680316,-0.12903231680909832,0.24176317731750266,0.021282713037760193,-0.013591909050528955
300bus.pwf,18,148,177,178,1.5903828680634906,-0.17700692809277724,-1.5221253595537194,0.3964165395377987,0.06825750850977119,0.21940961144502147
300bus.pwf,18,149,34,42,-2.323878447262451,-0.6147436103725687,2.329019711161901,0.6085975849287713,0.0051412638994499105,-0.006146025443797498
300bus.pwf,18,150,71,73,-0.603372029893262,0.3546039767816045,0.6208365157010697,-0.349460690144872,0.017464485807807684,0.005143286636732469
300bus.pwf,18,151,249,250,-0.22554095192173065,-0.1565685334949194,0.2299999999999918,0.17001082615941776,0.004459048078261141,0.013442292664498368
300bus.pwf,18,152,19,87,2.8710733992144095,-0.6865124370838093,-2.7666665690256225,1.1614769770006457,0.10440683018878705,0.4749645399168364
300bus.pwf,18,153,74,88,-0.8495170248095237,-1.0442719541396353,0.8556295390826819,1.0266008375012314,0.006112514273158176,-0.017671116638403817
300bus.pwf,18,154,178,180,-2.0945743152708953,-1.003617266009999,2.1346939438917154,1.122632138094512,0.04011962862082008,0.119014872084513
300bus.pwf,18,155,140,146,-0.2538885892605363,-0.23298648067536878,0.25630816376939985,-0.2932811207093122,0.0024195745088635423,-0.526267601384681
300bus.pwf,18,156,2,6,1.1702407940517998,1.293058881368258,-1.167534954078343,-1.2687063216071455,0.0027058399734567473,0.024352559761112502
300bus.pwf,18,157,126,169,0.5469997187316094,-0.43607736439339845,-0.5399772384005594,0.3096474986147782,0.007022480331049907,-0.12642986577862025
300bus.pwf,18,158,109,114,0.13794794189114945,-0.023799204845624207,-0.1361060104684937,-0.009685276675255476,0.0018419314226557626,-0.03348448152087968
300bus.pwf,18,159,35,77,-0.4837019722142634,-0.4101485090580774,0.4876718576633265,0.41858062581032707,0.003969885449063071,0.008432116752249641
300bus.pwf,18,160,73,76,0.2633895731458945,-0.30271230270357075,-0.2600480393322623,0.2826923500606804,0.003341533813632225,-0.02001995264289036
300bus.pwf,18,161,76,77,-0.6932143972343765,-0.4578436084813505,0.7044433276160975,0.48397219279871645,0.011228930381721014,0.026128584317365977
300bus.pwf,18,162,99,107,-0.2154953607377852,0.29922446877748843,0.22173465596921993,-0.3033751122364182,0.006239295231434738,-0.0041506434589297925
300bus.pwf,18,163,196,210,-0.2887220329155591,-0.23914317362676646,0.29273323387133576,0.23936323140588361,0.004011200955776673,0.0002200577791171554
300bus.pwf,18,164,62,64,2.1167552763951845,0.34972584719753397,-2.0538625188135406,-0.167435742071967,0.06289275758164381,0.18229010512556698
300bus.pwf,18,165,139,172,0.3002343812687787,-0.07375597088156317,-0.2956504978342958,0.0024308041449716683,0.004583883434482905,-0.0713251667365915
300bus.pwf,18,166,192,225,0.04969680296720402,-1.3069633746260079,-0.045473042302322186,1.325970297617985,0.004223760664881837,0.01900692299197715
300bus.pwf,18,167,4,16,12.521866936866903,1.9731945635843315,-12.251046556025374,-0.7068453655073439,0.2708203808415295,1.2663491980769876
300bus.pwf,18,168,181,187,-6.4598675869625986,-0.7557801336428955,6.474041596466142,0.9118346992392166,0.014174009503543417,0.15605456559632103
300bus.pwf,18,169,140,142,0.8021603869637803,-0.01768106704091993,-0.7919086817884089,-0.672301727253906,0.01025170517537144,-0.689982794294826
300bus.pwf,18,170,205,206,-0.016584385544234366,-0.07017175979308779,0.018030549734426977,0.07230748571635262,0.0014461641901926114,0.0021357259232648307
300bus.pwf,18,171,109,113,0.015959672534697034,0.08254238221033187,-0.01504948645671671,-0.1140938300126572,0.0009101860779803239,-0.03155144780232533
300bus.pwf,18,172,219,237,-0.4619157189242785,-0.5022281454956397,0.46358330209082943,-5.4382447424598395,0.0016675831665509122,-5.94047288795548
300bus.pwf,18,173,35,72,0.49230323144390803,0.007729962016246303,-0.4894219634583344,-0.0013541166596186954,0.0028812679855736434,0.006375845356627607
300bus.pwf,18,174,140,147,-0.4626896727318123,-0.27264496560657264,0.4717009981856405,-0.30363137021191994,0.009011325453828212,-0.5762763358184926
300bus.pwf,18,175,3,19,1.675694403149789,-0.5304390288593235,-1.6520425842402748,0.5889587049513401,0.023651818909514066,0.05851967609201658
300bus.pwf,18,176,38,43,0.19946508597981205,-0.33886652613611556,-0.19517054547184054,0.3076926162839976,0.0042945405079715115,-0.031173909852117987
300bus.pwf,18,177,58,59,-0.7783737476802947,0.640625515323296,0.7864150638323969,-0.6230557484663732,0.00804131615210224,0.017569766856922797
300bus.pwf,18,178,136,137,0.8256328759498494,-0.30584226186905755,-0.8185309027154105,-0.286583227310875,0.007101973234438841,-0.5924254891799325
300bus.pwf,18,179,133,171,7.647411991442335,1.9872151071825794,-7.636000000000005,-1.4109095393448865,0.011411991442330738,0.5763055678376929
300bus.pwf,18,180,216,217,-0.2317421736373233,-0.33451932697813835,0.2323631841841285,0.32343100995078733,0.0006210105468051896,-0.011088317027351025
300bus.pwf,18,181,118,121,0.5166553824825599,0.30862195351170585,-0.5158255115902532,-0.1986640602810692,0.0008298708923066833,0.10995789323063665
300bus.pwf,18,182,9002,9021,0.07232062121240991,0.02408174183895882,-0.07203240143800384,-0.02370464088272493,0.00028821977440607327,0.00037710095623388895
300bus.pwf,18,183,54,55,-0.32502352179804783,0.30309226645830684,0.33177689184491943,-0.33433519756094426,0.0067533700468715985,-0.031242931102637428
300bus.pwf,18,184,86,323,-0.1486657256856228,0.1572026065847357,0.14899999999999985,-0.2649964725402537,0.0003342743143770477,-0.10779386595551801
300bus.pwf,18,185,108,324,0.25086548603382697,-0.03223543603314201,-0.24699999999999978,0.012000891200081257,0.0038654860338271924,-0.020234544833060752
300bus.pwf,18,186,43,53,0.30181966667294013,-0.01997827958959987,-0.3007347831243258,0.00579810724771547,0.001084883548614357,-0.0141801723418844
300bus.pwf,18,187,22,23,-1.0489837833931537,-0.508261265785222,1.124635673562521,0.6178699399749205,0.07565189016936724,0.10960867418969844
300bus.pwf,18,188,186,188,6.541351408341893,0.5761040147863299,-6.516356098298679,-0.4071564842270221,0.024995310043214758,0.16894753055930778
300bus.pwf,18,189,3,150,-3.1846124666381717,1.9732667310386725,3.198357048721196,-1.8770546564574837,0.013744582083024426,0.09621207458118874
300bus.pwf,18,190,86,87,-1.86916066031017,0.6267598643260777,1.909203278836931,-0.5320978879926845,0.040042618526761053,0.09466197633339313
300bus.pwf,18,191,69,79,-0.04699605536586507,0.12908986737407802,0.04805349830159392,-0.15001609683481487,0.0010574429357288473,-0.020926229460736856
300bus.pwf,18,192,9002,9012,-0.04295963779432228,-0.004566826386651103,0.043091047885830305,0.005313115709796902,0.00013141009150802185,0.000746289323145799
300bus.pwf,18,193,128,130,-0.9048963192321068,-0.2750008132807975,0.9110041390259503,0.19377267821546676,0.006107819793843561,-0.08122813506533075
300bus.pwf,18,194,176,177,1.0665192347010752,-0.26638323427123994,-1.030382868063383,0.3466544752129614,0.03613636663769215,0.08027124094172144
300bus.pwf,18,195,130,168,0.9000001171393004,0.1924235111851575,-0.8940343405299684,-0.2730872338425718,0.005965776609331952,-0.08066372265741428
300bus.pwf,18,196,98,102,0.048873282403755686,0.2557479715696472,-0.04677429253180579,-0.26536431591486026,0.0020989898719498967,-0.00961634434521308
300bus.pwf,18,197,232,233,1.0426923654595606,-0.8368243097020857,-1.039999999999993,0.913635912519163,0.002692365459567636,0.07681160281707733
300bus.pwf,18,198,73,79,-0.2527325017215536,-0.6137007117145413,0.26080771852143547,0.619116311950192,0.008075216799881879,0.005415600235650686
300bus.pwf,18,199,71,72,-0.26470594372735606,0.002158799794730812,0.26730918875544135,-0.06015057594760469,0.002603245028085288,-0.057991776152873875
300bus.pwf,18,200,43,44,-0.4378306383568465,-0.38022493175607186,0.44549169216693413,0.361843352021204,0.007661053810087637,-0.01838157973486787
300bus.pwf,18,201,248,249,0.06460835020962206,-0.01614587352248994,-0.06445904807825818,0.01657293716889737,0.00014930213136388204,0.0004270636464074329
300bus.pwf,18,202,194,219,1.321409758129063,-0.22349482229506734,-1.3167291465034527,-0.31033068610275094,0.004680611625610176,-0.5338255083978183
300bus.pwf,18,203,3,7,0.6809983491019846,-0.7159568493378856,-0.6809983491019846,0.7188251889643311,0.0,0.002868339626445504
300bus.pwf,18,204,152,153,-0.02712386303354361,0.6067733149358372,0.0325552686921918,-0.7304176922909538,0.005431405658648192,-0.12364437735511657
300bus.pwf,18,205,138,188,-4.418457621361196,0.690266243197407,4.425068938667795,-0.3563947192142086,0.006611317306598252,0.3338715239831984
300bus.pwf,18,206,137,188,-5.1672839203919,-0.876955611744434,5.178903968545751,0.9310505142063749,0.011620048153851315,0.05409490246194082
300bus.pwf,18,207,7,131,-2.769331082296979,1.723611827556692,2.7797309931776297,-1.6650418683659152,0.01039991088065051,0.0585699591907769
300bus.pwf,18,208,97,100,0.32015551277963145,-0.04595772290618873,-0.31815094821620754,0.04280988199672554,0.002004564563423905,-0.0031478409094631843
300bus.pwf,18,209,138,181,-3.848542378638805,0.6745756911202181,3.853589099468137,-0.4197162892389701,0.00504672082933233,0.254859401881248
300bus.pwf,18,210,92,105,1.313747614405759,0.06674653058157282,-1.2894220231935392,0.05065240392701292,0.024325591212219777,0.11739893450858574
300bus.pwf,18,211,92,103,0.6638488556553742,0.07035956056267637,-0.6568267251148535,-0.03736363790662914,0.007022130540520699,0.03299592265604723
300bus.pwf,18,212,104,108,0.29764125922056855,-0.4603023745209691,-0.2790460507165626,0.44048662600045385,0.018595208504005978,-0.019815748520515264
300bus.pwf,18,213,155,161,-0.71468684922287,-1.5027002374800889,0.7462108079538903,1.3166332654697692,0.03152395873102032,-0.18606697201031963
300bus.pwf,18,214,226,231,-0.4026105466144473,-0.7045574209232224,0.40291009204755424,0.7172581472869477,0.00029954543310695136,0.012700726363725323
300bus.pwf,18,215,130,167,1.5282656870626186,0.5630674402980201,-1.5094477796236039,-0.5132940133782121,0.01881790743901468,0.04977342691980802
300bus.pwf,18,216,79,211,-0.0671375885387657,-0.0844675757430748,0.06789454273680404,0.033230046444844244,0.0007569541980383399,-0.051237529298230555
300bus.pwf,18,217,194,664,-1.1365405169178815,0.40732432244366384,1.139999999999004,-0.7669692382877997,0.0034594830811225386,-0.3596449158441359
300bus.pwf,18,218,23,25,1.312350995079813,0.31541153301096214,-1.2823230551975142,-0.273949117572442,0.030027939882298682,0.04146241543852014
300bus.pwf,18,219,9001,9005,-0.26492284618271805,-0.37014313701712775,0.26508772844458145,0.37086037485619694,0.00016488226186339716,0.0007172378390691847
300bus.pwf,18,220,128,133,0.3590502533858611,0.08133112758687704,-0.3587228429645522,-0.11180905168815373,0.00032741042130890463,-0.0304779241012767
300bus.pwf,18,221,206,208,0.01410333911028184,0.055690609546841914,-0.013420344969173223,-0.05449252399098082,0.0006829941411086171,0.0011980855558610948
300bus.pwf,18,222,133,168,-0.35058505137054274,-0.11059476812600214,0.350898198388888,0.08001233471331251,0.00031314701834528336,-0.030582433412689625
300bus.pwf,18,223,78,79,0.726318143849448,0.5298941822079526,-0.7217236282534795,-0.5245733507038237,0.0045945155959685735,0.005320831504128876
300bus.pwf,18,224,9002,9012,-0.04295963779432228,-0.004566826386651103,0.043091047885830305,0.005313115709796902,0.00013141009150802185,0.000746289323145799
300bus.pwf,18,225,41,49,1.3145913227794253,0.3696420297743216,-1.1994636133676242,-0.05004960214901477,0.11512770941180106,0.3195924276253068
300bus.pwf,18,226,9,11,0.5134018489914484,-0.11034236648652922,-0.511871387131056,0.10325410888076363,0.001530461860392407,-0.007088257605765591
300bus.pwf,18,227,91,97,0.9575351682954851,0.1625576092357763,-0.9402346887629442,-0.14791369057029533,0.01730047953254088,0.014643918665480982
300bus.pwf,18,228,16,42,8.509989588314628,-1.3093009167191583,-8.37867099038529,1.3193802269875676,0.1313185979293383,0.010079310268409358
300bus.pwf,18,229,46,81,3.3504871725366736,-0.49781779118753056,-3.3020836503738655,0.10636664120450723,0.04840352216280808,-0.3914511499830233
300bus.pwf,18,230,9003,9006,-0.08005969975544269,-0.015625289934325118,0.08077903304629591,0.01881706452547184,0.0007193332908532191,0.0031917745911467232
300bus.pwf,18,231,45,60,-3.3664653486256513,-0.3103060443691088,3.44775846658898,0.4688068444757778,0.08129311796332894,0.158500800106669
300bus.pwf,18,232,80,211,-0.2527483869441027,-0.1371478439360516,0.2543170560316272,0.08257103855902345,0.0015686690875245102,-0.05457680537702814
300bus.pwf,18,233,153,161,1.1133876140932357,1.3599030138380224,-1.0962108079538928,-1.4666238362832837,0.017176806139342915,-0.10672082244526138
300bus.pwf,18,234,26,27,0.5035820402177625,0.19021487068465318,-0.4899954752843504,-0.21622181855497472,0.013586564933412149,-0.02600694787032154
300bus.pwf,18,235,20,22,-0.2365715219525904,-0.2868909782807765,0.23898378339315524,0.2782897443684642,0.0024122614405648335,-0.008601233912312267
300bus.pwf,18,236,36,88,-1.1449136771826822,-0.22482813255258935,1.1494562011028737,0.20390662354766095,0.004542523920191499,-0.020921509004928396
300bus.pwf,18,237,243,244,0.5809873639608611,0.4265793599815675,-0.575534589967263,-0.4113373539364682,0.0054527739935981145,0.015242006045099288
300bus.pwf,18,238,81,195,1.1119794974283237,-1.000767815599595,-1.1067564649991768,0.42861237876916664,0.005223032429146901,-0.5721554368304282
300bus.pwf,18,239,197,211,-0.27874880312693107,0.1456978885031226,0.280119363052434,-0.14859267726041803,0.0013705599255029455,-0.00289478875729543
300bus.pwf,18,240,77,609,0.3028877195106375,0.0022472542306666565,-0.2959999999812049,-0.0059393784325838805,0.006887719529432568,-0.003692124201917224
300bus.pwf,18,241,215,216,1.540646813002232,0.7566617782248393,-1.52825782636284,-0.7154780965120942,0.01238898663939203,0.04118368171274511
300bus.pwf,18,242,245,247,0.06623976472182724,0.04626490608472689,-0.06602743599689487,-0.04501511561769411,0.00021232872493237576,0.0012497904670327742
300bus.pwf,18,243,118,119,-9.165216798612457,-1.8108894325915514,9.165216798612457,4.2743728721731955,0.0,2.463483439581644
300bus.pwf,18,244,234,237,0.060552362895377784,-1.6984093112563126,-0.05889503613060164,1.773541457926164,0.0016573267647761458,0.07513214666985135
300bus.pwf,18,245,37,89,-0.5006964772185976,-0.010466557769092472,0.5259404502837801,0.037957270615309874,0.025243973065182557,0.027490712846217402
300bus.pwf,18,246,15,37,1.0632303321447087,0.12440305031683477,-0.9990414184796348,-0.012402006640007485,0.06418891366507395,0.11200104367682728
300bus.pwf,18,247,77,552,-0.10990915913693922,-0.04155698371234376,0.1109999999936031,0.014061999142705141,0.0010908408566638883,-0.027494984569638618
300bus.pwf,18,248,119,120,1.5603509651889322,1.580536835285951,-1.5603509651889322,-1.431902763357833,0.0,0.14863407192811806
300bus.pwf,18,249,19,21,-1.219030814974134,0.0975924354092888,1.2218286848695068,-0.11102494417641312,0.0027978698953727843,-0.013432508767124318
300bus.pwf,18,250,190,231,5.342916890171411,-7.362698195377556,-5.327238836759607,0.48532731510891347,0.01567805341180417,-6.877370880268643
300bus.pwf,18,251,136,152,-3.5177548438359048,0.0207429822311882,3.577123863033536,-0.7558243351935845,0.05936901919763127,-0.7350813529623963
300bus.pwf,18,252,193,205,0.06131727820427513,0.1976880522397067,-0.05958971993516349,-0.19526947066295147,0.0017275582691116398,0.00241858157675523
300bus.pwf,18,253,193,208,0.020913237352078916,0.02835947604254043,-0.020859830368508657,-0.028218170065178592,5.340698357025886e-5,0.00014130597736183859
300bus.pwf,18,254,214,242,0.02488061806420784,-0.5735256778505202,-0.024444125097633065,0.5743999977919088,0.0004364929665747752,0.000874319941388535
300bus.pwf,18,255,33,34,-2.3238784472624423,-0.2894010073508859,2.3238784472624423,0.6149075259672543,0.0,0.32550651861636837
300bus.pwf,18,256,120,1200,-0.9999999999999996,0.36925857529807615,0.9999999999999996,-0.34370845379061876,0.0,0.02555012150745739
300bus.pwf,18,257,89,91,-0.4938367207593786,-0.130625327627452,0.5046005323915501,0.1414940063811438,0.010763811632171494,0.010868678753691796
300bus.pwf,18,258,129,130,-0.760824927671511,-0.3303886872963743,0.7653213015371133,0.23786120006430042,0.00449637386560231,-0.09252748723207385
300bus.pwf,18,259,105,107,0.7280450270962271,-0.0037349226809810926,-0.7225816527255777,0.031071958674114178,0.005463374370649365,0.027337035993133085
300bus.pwf,18,260,175,176,-0.5846195926704741,0.1868090784312618,0.6275114638186863,-0.05418441903799795,0.042891871148212135,0.13262465939326384
300bus.pwf,18,261,62,144,-2.9184158078029694,-0.5390180270009666,2.925770937451454,0.5748626070608254,0.007355129648484393,0.0358445800598588
300bus.pwf,18,262,246,247,-0.002479945863654758,0.0650736291361527,0.0025833351575573916,-0.06457790061874727,0.00010338929390263374,0.0004957285174054249
300bus.pwf,18,263,69,211,-0.15102792039942392,-0.02018491466970114,0.1521154787877157,-0.005118942429711712,0.001087558388291776,-0.025303857099412852
300bus.pwf,18,264,137,140,5.344758345265691,-0.31129206616853033,-5.308451916254151,0.2531534712370809,0.036306429011540686,-0.05813859493144946
300bus.pwf,18,265,33,41,-0.22311125688893776,0.07153988260104731,0.22348756910362758,-0.09677195045565361,0.00037631221468981124,-0.0252320678546063
300bus.pwf,18,266,44,54,0.17071557639014973,0.2871343881604068,-0.16773541615819493,-0.3203473972836227,0.002980160231954798,-0.0332130091232159
300bus.pwf,18,267,49,51,-1.4185739918118767,-0.05767016119177659,1.495341304029677,0.2529026187911393,0.07676731221780031,0.1952324575993627
300bus.pwf,18,268,212,215,-0.4331357605528623,-0.1404570781034018,0.43573997126283825,0.06354094909468098,0.0026042107099759626,-0.07691612900872082
300bus.pwf,18,269,9012,9121,0.038357550168853304,0.013732335744706104,-0.03799999999999953,-0.01222883971368537,0.00035755016885377633,0.0015034960310207346
300bus.pwf,18,270,47,73,0.3628694288212657,0.20768923205286383,-0.353459201622347,-0.2552469619974036,0.009410227198918708,-0.04755772994453977
300bus.pwf,18,271,140,145,0.14649554830151593,-0.1275709237922176,-0.14439462991503163,-0.43225998614180056,0.002100918386484296,-0.5598309099340182
300bus.pwf,18,272,52,55,-0.9266916602502683,-0.2983371711417631,0.9529475465770353,0.33958346228473163,0.02625588632676701,0.041246291142968516
300bus.pwf,18,273,72,77,-0.48841543044363733,-0.15735100758535306,0.49313555592484926,0.16893740144381122,0.004720125481211923,0.011586393858458166
300bus.pwf,18,274,154,156,-0.11588121200466805,0.42256422884334227,0.15167533827849577,-0.39441926804983246,0.03579412627382772,0.02814496079350981
300bus.pwf,18,275,137,186,-4.846527489679705,-0.6549106716293064,4.860648591658122,0.8088853404993269,0.014121101978417094,0.15397466887002054
300bus.pwf,18,276,127,134,-1.0250384428142367,-0.917896660775487,1.032861862263172,0.7429371231746456,0.007823419448935276,-0.17495953760084149
300bus.pwf,18,277,184,185,-1.9911556689140186,-0.5395429553341631,2.0000000000000053,0.43055007019863495,0.0088443310859867,-0.10899288513552813
300bus.pwf,18,278,43,48,-0.05881848284423868,0.002674861416862011,0.059154493447027216,-0.036741252349739344,0.000336010602788539,-0.03406639093287733
300bus.pwf,18,279,244,246,0.575534589967279,0.4113359180605666,-0.5671622402120511,-0.3876786631111787,0.008372349755227937,0.023657254949387863
300bus.pwf,18,280,130,132,1.2622834328352204,-0.9005165755851295,-1.258976614329555,0.9041689773775091,0.0033068185056652766,0.003652401792379578
300bus.pwf,18,281,234,235,0.13007102317606578,0.4475031178070806,-0.13001551108368514,-0.5889454004478194,5.551209238063848e-5,-0.14144228264073883
300bus.pwf,18,282,133,137,-6.862497049703787,-2.586554096479475,6.944830746462657,2.8244343172931257,0.08233369675886948,0.23788022081365057
300bus.pwf,18,283,40,48,0.020840588682112304,-0.13323666162209097,-0.02046623499193395,0.11179047097910771,0.00037435369017835285,-0.021446190642983254
300bus.pwf,18,284,142,143,-1.2141806510996034,-0.5032019755256777,1.2225021121288628,-0.24924378068789033,0.008321461029259458,-0.752445756213568
300bus.pwf,18,285,240,281,-0.33094341503896696,-0.30265774438062665,0.3310000000000002,0.29399506037485623,5.6584961033223635e-5,-0.008662684005770416
300bus.pwf,18,286,59,61,-2.966415063832401,-0.4368862565487587,2.982417153691448,0.5238756137049291,0.01600208985904672,0.0869893571561704
300bus.pwf,18,287,110,112,0.19151337315682931,-0.049058393789608516,-0.18686447774575715,0.006404714976340646,0.0046488954110721625,-0.04265367881326787
300bus.pwf,18,288,145,149,-0.5027067945354218,-0.4368586289764182,0.5101271028620804,0.2413275174947837,0.007420308326658631,-0.1955311114816345
300bus.pwf,18,289,243,245,0.17901263603916934,0.26130166954603584,-0.1763096896063024,-0.24634426045127344,0.0027029464328669484,0.014957409094762397
300bus.pwf,18,290,99,110,0.5399375306515888,0.06950169493203795,-0.5275884421191503,-0.052283990464136565,0.012349088532438435,0.017217704467901385
300bus.pwf,18,291,141,146,-0.16696656288738326,-0.21919855375096065,0.1676811309577399,-0.1736711887750757,0.0007145680703566359,-0.39286974252603635
300bus.pwf,18,292,5,9,1.486052114303847,0.36105228673129797,-1.4734018489914484,-0.3196008134132142,0.012650265312398545,0.04145147331808374
300bus.pwf,18,293,189,209,0.018752870303010455,0.38556379742310753,-0.012505682881357033,-0.3761930162906292,0.006247187421653422,0.009370781132478356
300bus.pwf,18,294,9003,9006,-0.08005969975544269,-0.015625289934325118,0.08077903304629591,0.01881706452547184,0.0007193332908532191,0.0031917745911467232
300bus.pwf,18,295,221,223,3.297236193044103,3.6648051817547453,-3.2884235239877633,-4.574349934845104,0.008812669056339928,-0.9095447530903589
300bus.pwf,18,296,191,225,6.549035983408693,2.7099073834903726,-6.4981906690098485,0.3916567948391224,0.05084531439884454,3.101564178329495
300bus.pwf,18,297,8,11,-0.25368106230498266,0.1731506345657422,0.254883641614012,-0.20337685330312494,0.001202579309029339,-0.030226218737382737
300bus.pwf,18,298,228,229,-2.1895833628379884,1.2072734977549324,2.2056160315130087,-2.3506406104973143,0.01603266867502029,-1.143367112742382
300bus.pwf,18,299,44,47,1.2298603670175496,0.27746126445333796,-1.1928613968307666,-0.20589640511874474,0.036998970186783,0.07156485933459322
300bus.pwf,18,300,100,102,0.2803045810486008,0.26426690829732397,-0.2781953285486448,-0.2637390458406455,0.0021092524999559714,0.0005278624566784629
300bus.pwf,18,301,97,103,0.05143985997052922,-0.1306146343274204,-0.05070415408550663,0.11513263333298521,0.0007357058850225862,-0.015482000994435197
300bus.pwf,18,302,231,237,-4.538890180355483,-9.816313837962188,4.546098989769663,5.808145621027397,0.00720880941418045,-4.0081682169347905
300bus.pwf,18,303,198,211,0.45615202280083067,0.40856920623591186,-0.4451596804326552,-0.41012757871911987,0.010992342368175478,-0.0015583724832080037
300bus.pwf,18,304,247,248,0.46232924104751777,0.015694214769975817,-0.45387012169623536,0.008319406752940045,0.008459119351282407,0.024013621522915862
300bus.pwf,18,305,148,178,0.9439652186317677,1.0969691507447574,-0.8491060465455456,-0.8949307634994327,0.09485917208622219,0.20203838724532475
300bus.pwf,18,306,109,110,-0.12679197884977808,0.020135663590467402,0.1278541174062303,-0.041076610631554246,0.001062138556452208,-0.020940947041086844
300bus.pwf,18,307,7071,71,1.1599999999500554,0.8700000028249981,-1.1599999999500554,-0.7378907280375024,0.0,0.13210927478749568
300bus.pwf,18,308,7023,23,1.8500000000000045,1.1999999563425519,-1.8500000000000045,-1.1075722740553147,0.0,0.09242768228723719
300bus.pwf,18,309,223,224,-0.9915764760122223,2.254351765718537,0.997839049874377,-1.7599539958903472,0.0062625738621546745,0.4943977698281896
300bus.pwf,18,310,143,148,2.0607026320322754,1.827374842908482,-2.053360626179413,-1.617845291261395,0.007342005852862599,0.20952955164708698
300bus.pwf,18,311,142,175,1.4410893328882655,0.9305295157357694,-1.433255252338486,-0.6975023455416778,0.00783408054977941,0.23302717019409158
300bus.pwf,18,312,163,137,2.329334517389695,0.7597695862421734,-2.3230324817207264,-0.5062959206949724,0.006302035668968475,0.25347366554720097
300bus.pwf,18,313,45,46,-2.3134507318330053,1.173812296321337,2.3134507318330053,-1.0567634101594479,0.0,0.11704888616188924
300bus.pwf,18,314,145,180,2.835608480136556,1.8309036489211679,-2.8296939438923867,-1.6156145296334075,0.005914536244169266,0.2152891192877604
300bus.pwf,18,315,9003,9032,0.014071474073206738,0.005574595358169505,-0.013899999999999994,-0.0044865153119411595,0.00017147407320674407,0.0010880800462283458
300bus.pwf,18,316,7011,11,2.3399999999999967,1.0000000016162929,-2.3399999999999967,-0.8879295476973539,0.0,0.112070453918939
300bus.pwf,18,317,81,88,2.0050857402178597,1.321924063231343,-2.0050857402178597,-1.2304469012583823,0.0,0.09147716197296063
300bus.pwf,18,318,7130,130,12.920000000000002,2.944771663350032,-12.920000000000002,-0.14390977921070913,0.0,2.800861884139323
300bus.pwf,18,319,3,4,12.521866936866962,2.637145651687547,-12.521866936866962,-1.973135681301983,0.0,0.664009970385564
300bus.pwf,18,320,7024,24,4.1,1.0330237436697942,-4.1,-0.6060408675705489,0.0,0.42698287609924535
300bus.pwf,18,321,7002,2,6.230000000000007,2.8000000174520814,-6.191443884938905,-2.2370807375599817,0.03855611506110179,0.5629192798920997
300bus.pwf,18,322,7,5,0.9501439552565576,0.4671510074634533,-0.9501439552565576,-0.42905737227360063,0.0,0.03809363518985265
300bus.pwf,18,323,86,102,0.5823152113314212,-1.067649000944897,-0.5823152113314212,1.138639339682964,0.0,0.07099033873806704
300bus.pwf,18,324,201,69,-0.19802397577034134,0.11354390865290576,0.19802397577034134,-0.10887069602231314,0.0,0.004673212630592616
300bus.pwf,18,325,10,11,-0.022937223647503755,0.43768629716918817,0.022937223647503755,-0.4228381198223552,0.0,0.01484817734683297
300bus.pwf,18,326,9004,9042,0.00817847978292433,0.002897144631115201,-0.008100000000000001,-0.0024931067342435446,7.847978292432889e-5,0.00040403789687165625
300bus.pwf,18,327,132,170,1.2217396508044238,-1.276471497673759,-1.2185272431557266,1.4056102851513739,0.0032124076486972353,0.12913878747761487
300bus.pwf,18,328,9005,9054,-0.5000000000000001,-0.3218970364611815,0.5000000000000001,0.3800000080276771,0.0,0.058102971566495576
300bus.pwf,18,329,7044,44,0.3699999999998506,0.4200000061139235,-0.3699999999998506,-0.3766646426861495,0.0,0.043335363427774
300bus.pwf,18,330,9003,9031,0.018695581691229715,0.007956090727635453,-0.0184,-0.006080469886298375,0.00029558169122971545,0.0018756208413370778
300bus.pwf,18,331,7057,57,1.6499999999999837,0.9000000058601287,-1.6499999999999837,-0.7521977237648407,0.0,0.147802282095288
300bus.pwf,18,332,16,15,3.741056967711606,2.0162572643971717,-3.727422740746574,-1.4981566397259447,0.013634226965031804,0.518100624671227
300bus.pwf,18,333,211,212,-1.253912351005315,0.8104662369022726,1.2602107990587006,-0.7848525481518613,0.006298448053385641,0.025613688750411256
300bus.pwf,18,334,9005,9053,0.012123836758511478,-0.11902091442582276,-0.011900000000003689,0.12433682785540358,0.0002238367585077894,0.005315913429580821
300bus.pwf,18,335,9003,9037,0.01875043520094237,0.007096586988166415,-0.0186,-0.006091653268595027,0.00015043520094237123,0.001004933719571388
300bus.pwf,18,336,130,131,2.7797309931776204,-1.4774804284346956,-2.7797309931776204,1.6651010480710866,0.0,0.18762061963639098
300bus.pwf,18,337,116,124,2.78548980446655,0.44690637929353494,-2.7441046749017572,-0.3084253688267159,0.04138512956479268,0.13848101046681904
300bus.pwf,18,338,9003,9034,0.015550650309947747,-0.012596566852074588,-0.0155,0.01313835303690706,5.065030994774733e-5,0.0005417861848324712
300bus.pwf,18,339,209,198,-0.3674943171186395,0.24620326833060877,0.37144438015051756,-0.2141469875719064,0.003950063031878059,0.03205628075870237
300bus.pwf,18,340,7012,12,3.7200000000000015,2.240000012334548,-3.7200000000000015,-1.7424251716059516,0.0,0.49757484072859626
300bus.pwf,18,341,121,115,1.7362739878352313,0.7607586904645274,-1.7362739878352313,-0.6472130998991901,0.0,0.1135455905653373
300bus.pwf,18,342,7,6,0.03246504592165971,-0.8325431681876552,-0.03246504592165971,0.8587594505162954,0.0,0.02621628232864026
300bus.pwf,18,343,73,74,-2.5180343854274234,0.8111891000728946,2.5180343854274234,-0.6668759937384152,0.0,0.14431310633447936
300bus.pwf,18,344,241,237,5.747999999999993,2.3312323364617624,-5.732101591846442,-1.8415613653323633,0.015898408153550925,0.48967097112939917
300bus.pwf,18,345,164,155,2.1942109287608575,-0.8299286900839467,-2.1877934194959643,1.0213747607950627,0.006417509264893262,0.19144607071111608
300bus.pwf,18,346,45,44,3.4260676355751634,1.0524193508515083,-3.4260676355751634,-0.8396436956588857,0.0,0.21277565519262254
300bus.pwf,18,347,238,239,-5.476024348806776,-3.2327788397121466,5.5,3.9999996778953175,0.023975651193223868,0.7672208381831709
300bus.pwf,18,348,9003,9038,0.026144193197544078,0.010897833977311994,-0.025799999999999986,-0.008583345358831058,0.0003441931975440918,0.0023144886184809366
300bus.pwf,18,349,9021,9022,0.015411976935528052,0.005736204429959793,-0.015299999999999786,-0.005025633992444803,0.00011197693552826571,0.0007105704375149902
300bus.pwf,18,350,218,219,-0.824313880777021,0.6805077297724375,0.8252708367653722,-0.635145021861704,0.0009569559883512158,0.04536270791073349
300bus.pwf,18,351,229,230,-3.4275895066454654,3.24402835468121,3.4499999999999957,-2.49999997531079,0.02241049335453038,0.7440283793704197
300bus.pwf,18,352,9007,9072,0.010234412047803863,0.003432025859007497,-0.010199999999999994,-0.0032021428298683197,3.441204780386953e-5,0.00022988302913917735
300bus.pwf,18,353,36,35,1.144913677511351,0.2248889503836935,-1.144913677511351,-0.1626573995337992,0.0,0.06223155084989429
300bus.pwf,18,354,234,236,-5.976416917576468,-2.2453403389449105,5.999999999999988,2.999998976497555,0.02358308242351992,0.7546586375526445
300bus.pwf,18,355,7001,1,4.670000000000001,2.10000001266976,-4.670000000000001,-1.676813965092272,0.0,0.423186047577488
300bus.pwf,18,356,7003,3,12.099999999999987,4.200000033711632,-12.099999999999987,-2.6180810973465753,0.0,1.5819189363650565
300bus.pwf,18,357,130,150,3.198357048721194,-1.6846879307524887,-3.198357048721194,1.8771152634093795,0.0,0.19242733265689083
300bus.pwf,18,358,151,170,1.5577638733655774,2.880534218141065,-1.549472756844271,-2.5555224505058547,0.00829111652130643,0.32501176763521045
300bus.pwf,18,359,9007,9071,0.010249742954589535,0.0035348450388144543,-0.010199999999999997,-0.0032003541102644745,4.974295458953781e-5,0.00033449092854997975
300bus.pwf,18,360,153,183,1.0140571172145756,0.2705146431169518,-1.0116710897617591,-0.21404532673362345,0.0023860274528164638,0.05646931638332833
300bus.pwf,18,361,213,214,2.7199999999999696,1.0328030753153594,-2.7025101609826283,-0.7669575222517746,0.017489839017341247,0.2658455530635848
300bus.pwf,18,362,9003,9035,0.01677197201181777,0.006580365275661637,-0.0166,-0.00548914282639873,0.0001719720118177684,0.0010912224492629075
300bus.pwf,18,363,200,248,-0.09926177148664424,-0.3163249007228801,0.09926177148664424,0.3432672817252387,0.0,0.026942381002358573
300bus.pwf,18,364,7049,49,-4.153964223542485,0.0,4.153964223542485,0.26415703390470924,0.0,0.26415703390470924
300bus.pwf,18,365,143,144,2.9257709374512837,1.1868699760788441,-2.9257709374512837,-0.5748179852805642,0.0,0.61205199079828
300bus.pwf,18,366,9005,9052,0.30239586154151615,0.2866031661112223,-0.30000000000000004,-0.22968854903563707,0.002395861541516109,0.056914617075585205
300bus.pwf,18,367,159,117,-9.248342354507876,3.4575655049576923,9.248342354507876,-1.9912305398716867,0.0,1.4663349650860056
300bus.pwf,18,368,182,139,-0.7488652904376253,-1.6293998313442537,0.7497656187312164,1.6687141668310326,0.0009003282935911017,0.03931433548677887
300bus.pwf,18,369,189,210,-0.12462808178329203,-0.3432582619462221,0.12462808178329203,0.38031902035573006,0.0,0.037060758409507955
300bus.pwf,18,370,122,157,-1.3529301862971885,1.036049523933381,1.3544905348139888,-0.9751959317781691,0.001560348516800314,0.0608535921552118
300bus.pwf,18,371,3,1,0.31212896814883073,0.1477755388186459,-0.31212896814883073,-0.14238903500231004,0.0,0.005386503816335875
300bus.pwf,18,372,7017,17,3.2999999999999985,3.5000000311237613,-3.2999999999999985,-3.2102656300471466,0.0,0.28973440107661474
300bus.pwf,18,373,9004,9043,0.01604415239472684,0.005375127889471616,-0.016000000000000007,-0.004896298408943373,4.4152394726833244e-5,0.00047882948052824226
300bus.pwf,18,374,63,64,-2.053862518813538,-0.017245193095543954,2.053862518813538,0.16748723768579055,0.0,0.1502420445902466
300bus.pwf,18,375,141,174,1.0619486991017684,0.6192940265864239,-1.0591272160872276,-0.548404265846088,0.002821483014540771,0.07088976074033582
300bus.pwf,18,376,7061,61,3.9999999999999987,1.500000003273918,-3.9999999999999987,-1.1410330675511275,0.0,0.3589669357227905
300bus.pwf,18,377,7139,139,6.999999999999971,3.2500000067887527,-6.999999999999971,-2.4279390208608476,0.0,0.8220609859279051
300bus.pwf,18,378,160,124,-0.874058152326768,-0.9814726947329835,0.876426500584565,1.059628187240283,0.0023683482577969706,0.07815549250729958
300bus.pwf,18,379,9001,9006,0.25415523376442706,0.08739132666917027,-0.25260969136858746,-0.05971097286225435,0.0015455423958395942,0.027680353806915914
300bus.pwf,18,380,9053,9533,0.011899999999998856,0.003963180204701544,-0.011899999999998856,-0.0038661406828530698,0.0,9.703952184847431e-5
300bus.pwf,18,381,155,156,0.9024802687188449,-0.01866796141900058,-0.901675338278501,0.044425735510005684,0.0008049304403439095,0.025757774091005103
300bus.pwf,18,382,202,211,-0.22595647231944962,0.011262725222570324,0.22595647231944962,-0.005263360432623543,0.0,0.005999364789946782
300bus.pwf,18,383,9003,9033,0.01922186345879211,0.008221392141975618,-0.018899999999999993,-0.0061789965396260565,0.0003218634587921175,0.0020423956023495615
300bus.pwf,18,384,7055,55,0.44999999999996737,0.2500000075953883,-0.44999999999996737,-0.2050310405657383,0.0,0.04496896702965003
300bus.pwf,18,385,9005,9055,-0.07999999999999996,-0.05211647137265252,0.07999999999999996,0.06000000805557604,0.0,0.00788353668292352
300bus.pwf,18,386,15,17,2.4119220598967113,-0.8470026670535449,-2.3100000000000813,1.0103931857538238,0.10192205989662995,0.16339051870027888
300bus.pwf,18,387,9002,9024,0.013598654376234259,0.005051919231858305,-0.01349999999999983,-0.004425910675166268,9.865437623442913e-5,0.000626008556692037
300bus.pwf,18,388,9004,9041,0.010141409580150872,0.0034746214109642928,-0.010099999999999987,-0.0031968535384276544,4.140958015088486e-5,0.00027776787253663837
300bus.pwf,18,389,9023,9025,0.004514263195163989,0.0014147917248886564,-0.004499999999999958,-0.0013304376556004058,1.426319516403124e-5,8.435406928825051e-5
300bus.pwf,18,390,193,196,-0.0822305155562781,-0.2260223710583804,0.0822305155562781,0.24088818758115238,0.0,0.014865816522771969
300bus.pwf,18,391,7166,166,5.529999999999972,0.8351167578054017,-5.529999999999972,-0.28553127546187085,0.0,0.5495854823435309
300bus.pwf,18,392,7062,62,3.999999999999996,1.5000000053851537,-3.999999999999996,-1.041046580898282,0.0,0.4589534244868716
300bus.pwf,18,393,7039,39,4.999999999999994,2.00000001689169,-4.999999999999994,-1.2732534263103048,0.0,0.726746590581385
300bus.pwf,18,394,196,2040,0.8945615672500047,0.4312840452146385,-0.8944660845479824,-0.41218750481019173,9.548270202230924e-5,0.01909654040444675
300bus.pwf,18,395,227,231,-2.3499999999999934,-2.9306095149313918,2.365678858006637,3.963003594523568,0.01567885800664337,1.0323940795921764
300bus.pwf,18,396,195,212,0.8282487672921095,-0.8716309291899449,-0.8270750385710682,0.9253290181775788,0.0011737287210412672,0.05369808898763395
300bus.pwf,18,397,9001,9012,0.1250729718991664,0.03364337462478905,-0.12453964594051498,-0.02409266047893887,0.0005333259586514372,0.009550714145850181
300bus.pwf,18,398,222,237,-0.779999999999996,0.7263345807495705,0.7813143361165322,-0.3018800184681767,0.0013143361165361966,0.4244545622813938
300bus.pwf,18,399,85,99,1.421024511461208,0.31873370863814543,-1.421024511461208,-0.23628683111175164,0.0,0.08244687752639379
300bus.pwf,18,400,9023,9026,0.0045130566765390085,0.001407870169013488,-0.004499999999999929,-0.0013306535862815231,1.3056676539079104e-5,7.721658273196486e-5
300bus.pwf,18,401,9003,9036,0.030458694609561056,0.011411709258149673,-0.030299999999999987,-0.009690717346217138,0.00015869460956106918,0.0017209919119325345
300bus.pwf,18,402,3,2,-0.10607619062935192,-0.8936531409322264,0.10607619062935192,0.9345806510637615,0.0,0.04092751013153517
300bus.pwf,18,403,204,2040,-0.875564240513261,-0.2072128800433971,0.894466084547686,0.412201978262409,0.018901844034424964,0.2049890982190119
300bus.pwf,18,404,37,9001,0.11430985066210544,-0.2493290942987091,-0.11430535948080481,0.249363526688548,4.4911813006365264e-6,3.443238983891206e-5
300bus.pwf,18,405,114,207,-0.05503094515423257,0.009943409492027655,0.05503094515423257,-0.009559237753396843,0.0,0.0003841717386308119
300bus.pwf,18,406,12,10,1.4570627763524853,0.6747395908642133,-1.4570627763524853,-0.5676340162358535,0.0,0.10710557462835979
300bus.pwf,18,407,9005,9051,0.00039257325538248795,-0.16417427857667774,-3.471181675429591e-15,0.17350000801339457,0.00039257325537901677,0.009325729436716834
300bus.pwf,18,408,24,23,0.7969866686423354,-0.06856870425847816,-0.7969866686423354,0.10430855150278973,0.0,0.03573984724431156
300bus.pwf,18,409,87,94,0.8574632901886948,-0.6293613496246167,-0.8574632901886948,0.6842599026491172,0.0,0.05489855302450053
300bus.pwf,18,410,21,20,4.801164833451809,0.0011329237492319066,-4.801164833451809,0.36273496398014515,0.0,0.36386788772937706
300bus.pwf,18,411,62,61,1.2524171536914541,0.575452099671363,-1.2524171536914541,-0.4827902155824937,0.0,0.09266188408886933
